5    
Iteration 5 Energy -40.51556432
C       -0.0008301903    0.0016435784   -0.0004311102
H       -0.6759833206    0.8539822031   -0.0858192850
H       -0.3945625405   -0.8336683692   -0.5807811652
H        0.0839297890   -0.2913759252    1.0467616433
H        0.9830435979    0.2776571575   -0.3816938437
