8    
Iteration 0 Energy -79.82077091
C       -0.7600000000   -0.0070000000   -0.0510000000
C        0.7430000000   -0.0340000000    0.0030000000
H       -1.1310000000   -0.1830000000    0.9860000000
H       -1.0730000000    1.0190000000   -0.3240000000
H       -1.2010000000   -0.7890000000   -0.6830000000
H        1.0540000000    0.9020000000    0.5470000000
H        1.2190000000    0.0220000000   -0.9870000000
H        1.1490000000   -0.9310000000    0.5080000000
8    
Iteration 1 Energy -79.82469137
C       -0.7685005492    0.0026815598   -0.0279120686
C        0.7627982621   -0.0148115275    0.0125039537
H       -1.1818644105   -0.1693611345    0.9725085334
H       -1.1425088747    0.9772757083   -0.3473913039
H       -1.1807773767   -0.7709956739   -0.6769643553
H        1.1484729708    0.8542080630    0.5546588896
H        1.2015796351    0.0279940778   -0.9891286622
H        1.1538592007   -0.9108355499    0.4986822068
8    
Iteration 2 Energy -79.82498609
C       -0.7642271246    0.0060729622   -0.0158407992
C        0.7622869915   -0.0094212205    0.0141202255
H       -1.1804284796   -0.1647411339    0.9803418781
H       -1.1445602140    0.9689090552   -0.3634908841
H       -1.1589354808   -0.7695476418   -0.6753652001
H        1.1576633897    0.8458609608    0.5649145657
H        1.1795954733    0.0313466726   -0.9956482061
H        1.1417881860   -0.9146506927    0.4926712950
8    
Iteration 3 Energy -79.82504127
C       -0.7638609505    0.0075737761   -0.0109115056
C        0.7622059742   -0.0071958933    0.0167388153
H       -1.1826797056   -0.1571903343    0.9850025220
H       -1.1455067678    0.9647152500   -0.3764356973
H       -1.1538873033   -0.7735298478   -0.6687999650
H        1.1590643659    0.8426099722    0.5779043472
H        1.1757712829    0.0396370806   -0.9940681823
H        1.1401496279   -0.9186050475    0.4873691544
8    
Iteration 4 Energy -79.82507888
C       -0.7639250958    0.0114858033   -0.0128085322
C        0.7616722470   -0.0052537082    0.0154768352
H       -1.1849017624   -0.1391848777    0.9844195435
H       -1.1442010524    0.9612349820   -0.4002684368
H       -1.1526930471   -0.7793020639   -0.6614757553
H        1.1584327654    0.8345316467    0.5935220160
H        1.1758754613    0.0565981100   -0.9939214629
H        1.1376370566   -0.9260414732    0.4712871579
8    
Iteration 5 Energy -79.82514098
C       -0.7639332617    0.0125318016   -0.0140235291
C        0.7613883565   -0.0046710375    0.0152459827
H       -1.1840674687   -0.1208062005    0.9860056851
H       -1.1433901038    0.9560852588   -0.4172492592
H       -1.1543117599   -0.7899859292   -0.6473366942
H        1.1568916200    0.8255143517    0.6078976826
H        1.1779059721    0.0750098362   -0.9920874494
H        1.1373270011   -0.9328863763    0.4556851072
8    
Iteration 6 Energy -79.82515673
C       -0.7637402300    0.0141620832   -0.0158259223
C        0.7615339791   -0.0042950465    0.0181433622
H       -1.1842916713   -0.0818823285    0.9886474076
H       -1.1399256538    0.9458020495   -0.4469812540
H       -1.1572257600   -0.8098173899   -0.6176082180
H        1.1536391988    0.8087745176    0.6350934493
H        1.1836586582    0.1074832145   -0.9840829022
H        1.1374312966   -0.9440924917    0.4318072600
8    
Iteration 7 Energy -79.82518460
C       -0.7639435231    0.0127388758   -0.0162798215
C        0.7616005310   -0.0043137058    0.0183292803
H       -1.1847169373   -0.0899438880    0.9874794944
H       -1.1410867840    0.9473156194   -0.4400066733
H       -1.1562779063   -0.8070740474   -0.6240595695
H        1.1537117893    0.8135712993    0.6287864762
H        1.1827362764    0.1004457783   -0.9850581481
H        1.1385048269   -0.9405371768    0.4387784972
8    
Iteration 8 Energy -79.82518197
C       -0.7640454222    0.0128197654   -0.0157906667
C        0.7616685654   -0.0051944407    0.0176440090
H       -1.1842471020   -0.0927324261    0.9878653338
H       -1.1407047597    0.9494880890   -0.4352528159
H       -1.1573898850   -0.8043463861   -0.6262699645
H        1.1553315525    0.8138613827    0.6253977565
H        1.1816570845    0.0969779132   -0.9864324309
H        1.1381988487   -0.9405961472    0.4400184776
8    
Iteration 9 Energy -79.82517629
C       -0.7640263645    0.0128775512   -0.0159064415
C        0.7616571105   -0.0050080295    0.0178276686
H       -1.1843625446   -0.0909894972    0.9878758279
H       -1.1406885140    0.9487488893   -0.4371322376
H       -1.1572272119   -0.8054168858   -0.6249802617
H        1.1550260148    0.8132135418    0.6268980782
H        1.1819038935    0.0986677112   -0.9859956249
H        1.1382183017   -0.9409791027    0.4389271283
8    
Iteration 10 Energy -79.82515802
C       -0.7640277423    0.0127871895   -0.0158091294
C        0.7616502655   -0.0050658467    0.0176349703
H       -1.1840900064   -0.0904822671    0.9881884006
H       -1.1406734768    0.9485435107   -0.4372161111
H       -1.1574056411   -0.8057164553   -0.6244090821
H        1.1551261999    0.8136524884    0.6258893999
H        1.1816244847    0.0978921550   -0.9864308064
H        1.1382963907   -0.9406345795    0.4394555094
8    
Iteration 11 Energy -79.82515944
C       -0.7639853962    0.0124172791   -0.0160241233
C        0.7616085819   -0.0047182353    0.0177684757
H       -1.1842503651   -0.0905917392    0.9879612176
H       -1.1409452206    0.9478632844   -0.4378638475
H       -1.1566630363   -0.8065766474   -0.6244027344
H        1.1541983296    0.8144268572    0.6259837962
H        1.1819146329    0.0982217349   -0.9862186577
H        1.1386462133   -0.9400010551    0.4399121125
8    
Iteration 12 Energy -79.82518606
C       -0.7638986958    0.0109821706   -0.0170264500
C        0.7615555451   -0.0031781384    0.0186353828
H       -1.1851647888   -0.0920163580    0.9865898505
H       -1.1420835697    0.9453850534   -0.4401711397
H       -1.1541146950   -0.8093434532   -0.6252342051
H        1.1513699901    0.8168703418    0.6274297897
H        1.1831023991    0.1004742306   -0.9848189181
H        1.1398879083   -0.9377686755    0.4412647677
8    
Iteration 13 Energy -79.82517749
C       -0.7639820450    0.0118971306   -0.0163364202
C        0.7616212805   -0.0041202886    0.0180576938
H       -1.1845895836   -0.0913716125    0.9874457846
H       -1.1415256139    0.9470130954   -0.4384612333
H       -1.1557876737   -0.8074718608   -0.6248225342
H        1.1533468516    0.8152438338    0.6265995692
H        1.1822834875    0.0992050293   -0.9856994608
H        1.1391929990   -0.9392406671    0.4401520874
8    
Iteration 14 Energy -79.82518605
C       -0.7640163427    0.0132566473   -0.0161917972
C        0.7616409966   -0.0054710891    0.0180848563
H       -1.1848766889   -0.0895973739    0.9874440692
H       -1.1400503478    0.9491529565   -0.4378527930
H       -1.1572458948   -0.8052834917   -0.6249352098
H        1.1549996980    0.8128989887    0.6270036124
H        1.1824182880    0.0975733189   -0.9855611525
H        1.1376152309   -0.9414751986    0.4395401846
8    
Iteration 15 Energy -79.82516130
C       -0.7640261630    0.0137530606   -0.0168185716
C        0.7616449640   -0.0059649283    0.0187786379
H       -1.1858087755   -0.0888355310    0.9864537617
H       -1.1391412749    0.9498387263   -0.4388748508
H       -1.1573550527   -0.8045096934   -0.6258299426
H        1.1551076253    0.8119392584    0.6281958780
H        1.1833465171    0.0970474011   -0.9844818768
H        1.1366901862   -0.9422892805    0.4403477268
8    
Iteration 16 Energy -79.82516508
C       -0.7639804053    0.0132622114   -0.0166323111
C        0.7615998339   -0.0055010945    0.0185252272
H       -1.1853072552   -0.0900299054    0.9868472273
H       -1.1396997084    0.9493257917   -0.4382467694
H       -1.1569162007   -0.8049576923   -0.6259405360
H        1.1545536287    0.8127083813    0.6278167102
H        1.1829239248    0.0977299384   -0.9849587181
H        1.1373062766   -0.9415796130    0.4401281809
8    
Iteration 17 Energy -79.82517690
C       -0.7636569660    0.0083257894   -0.0153662807
C        0.7613117051   -0.0007361351    0.0165801046
H       -1.1814789592   -0.0985600262    0.9897128950
H       -1.1454046023    0.9427706167   -0.4355066239
H       -1.1523824319   -0.8115807104   -0.6250405308
H        1.1492026275    0.8210539171    0.6241025173
H        1.1796776656    0.1038162716   -0.9885211169
H        1.1434699499   -0.9339584797    0.4392353152
8    
Iteration 18 Energy -79.82517685
C       -0.7639084604    0.0109100654   -0.0159129390
C        0.7615809099   -0.0031922385    0.0175382330
H       -1.1837144562   -0.0935463456    0.9881862640
H       -1.1427166168    0.9459560085   -0.4371365953
H       -1.1549041121   -0.8084967889   -0.6248470184
H        1.1523121868    0.8166010826    0.6261027091
H        1.1815542961    0.1009116445   -0.9865335045
H        1.1405156040   -0.9379859581    0.4392400799
8    
Iteration 19 Energy -79.82517304
C       -0.7640176836    0.0124493209   -0.0161658950
C        0.7616874525   -0.0046986546    0.0179769320
H       -1.1848530245   -0.0906157090    0.9874889810
H       -1.1408715272    0.9479992632   -0.4379378252
H       -1.1565007849   -0.8065797408   -0.6246419381
H        1.1542457570    0.8142734354    0.6264983069
H        1.1824608234    0.0984540619   -0.9856876122
H        1.1385189467   -0.9402704402    0.4397021012
8    
Iteration 20 Energy -79.82515789
C       -0.7639789459    0.0114838034   -0.0159078060
C        0.7616669501   -0.0037295366    0.0176231741
H       -1.1841647811   -0.0922942669    0.9880030738
H       -1.1421743966    0.9466198397   -0.4373938983
H       -1.1555882589   -0.8079389171   -0.6244350888
H        1.1532091982    0.8157716902    0.6260903369
H        1.1818904377    0.1000135756   -0.9862758731
H        1.1398957943   -0.9388099990    0.4392040603
8    
Iteration 21 Energy -79.82518244
C       -0.7636006656    0.0029785592   -0.0131714877
C        0.7614562294    0.0048776871    0.0140320448
H       -1.1770962674   -0.1061162094    0.9933554712
H       -1.1540318829    0.9340071131   -0.4327635604
H       -1.1480653333   -0.8203363150   -0.6211277520
H        1.1448086663    0.8290811187    0.6213660689
H        1.1757157879    0.1133162071   -0.9923170071
H        1.1523154094   -0.9256319152    0.4345114282
8    
Iteration 22 Energy -79.82517732
C       -0.7639531906    0.0102025576   -0.0154556233
C        0.7616704557   -0.0023910604    0.0170626986
H       -1.1830492818   -0.0943823804    0.9888517019
H       -1.1441511091    0.9446356802   -0.4366756050
H       -1.1545481810   -0.8098301190   -0.6238577697
H        1.1521443030    0.8176924586    0.6254594136
H        1.1808487698    0.1021885179   -0.9872190824
H        1.1419112241   -0.9368023090    0.4383031504
8    
Iteration 23 Energy -79.82516049
C       -0.7640086614    0.0123788556   -0.0161328980
C        0.7616703707   -0.0045944151    0.0179486866
H       -1.1846633735   -0.0908900909    0.9875310454
H       -1.1410761551    0.9478959506   -0.4377828460
H       -1.1564190685   -0.8066566684   -0.6247028400
H        1.1541764015    0.8143458863    0.6265997278
H        1.1822632957    0.0987525123   -0.9857317383
H        1.1386966075   -0.9401679114    0.4395007380
8    
Iteration 24 Energy -79.82518429
C       -0.7639877623    0.0113060528   -0.0157723981
C        0.7616739726   -0.0035014028    0.0174886952
H       -1.1838274096   -0.0926530812    0.9882259399
H       -1.1426355873    0.9462879907   -0.4371805854
H       -1.1555309988   -0.8081882122   -0.6242844913
H        1.1532255260    0.8159492859    0.6260534549
H        1.1815086823    0.1005116399   -0.9865072117
H        1.1403159744   -0.9385138827    0.4388322078
8    
Iteration 25 Energy -79.82518565
C       -0.7639975242    0.0116974743   -0.0159130365
C        0.7616751548   -0.0039150750    0.0176585354
H       -1.1841884163   -0.0920392649    0.9879809529
H       -1.1420142420    0.9469005631   -0.4374195247
H       -1.1558574275   -0.8075791478   -0.6244696953
H        1.1535531671    0.8153599402    0.6262035715
H        1.1818519738    0.0998136321   -0.9862389632
H        1.1396879859   -0.9391165059    0.4391701103
8    
Iteration 26 Energy -79.82517225
C       -0.7637783797    0.0137787604   -0.0177822733
C        0.7614206507   -0.0059589733    0.0196187320
H       -1.1830195770   -0.0917260542    0.9854748397
H       -1.1410399364    0.9488062691   -0.4361027471
H       -1.1568811353   -0.8039658062   -0.6314005445
H        1.1547563256    0.8116334070    0.6333253991
H        1.1806114059    0.0994614612   -0.9837231831
H        1.1386003805   -0.9408852274    0.4377674665
8    
Iteration 27 Energy -79.82516794
C       -0.7639375212    0.0132175864   -0.0172876771
C        0.7615944460   -0.0053787429    0.0191235512
H       -1.1842787580   -0.0916947314    0.9860741095
H       -1.1409249154    0.9488967464   -0.4369949870
H       -1.1566039736   -0.8043571546   -0.6290419771
H        1.1544943750    0.8120487174    0.6309335041
H        1.1818125248    0.0994803562   -0.9843167472
H        1.1384854356   -0.9410767107    0.4387176800
8    
Iteration 28 Energy -79.82518533
C       -0.7640546358    0.0150290848   -0.0177134484
C        0.7616688865   -0.0072997122    0.0196369699
H       -1.1872841737   -0.0883909193    0.9850372177
H       -1.1369167681    0.9524847205   -0.4387557168
H       -1.1582600246   -0.8012114505   -0.6286252363
H        1.1560338651    0.8088850226    0.6305232308
H        1.1847785408    0.0961809310   -0.9831202894
H        1.1345202501   -0.9447348973    0.4406983139
8    
Iteration 29 Energy -79.82518644
C       -0.7639876960    0.0164336352   -0.0185993502
C        0.7615731836   -0.0088320880    0.0205829636
H       -1.1887011281   -0.0866890433    0.9835171806
H       -1.1344054016    0.9548270218   -0.4397734803
H       -1.1589888106   -0.7989693240   -0.6301968935
H        1.1566566305    0.8070364544    0.6314935209
H        1.1862211460    0.0936031545   -0.9816019225
H        1.1320211651   -0.9468564164    0.4425312871
8    
Iteration 30 Energy -79.82514582
C       -0.7651490246    0.0232441568   -0.0111143916
C        0.7628096860   -0.0155793044    0.0129929983
H       -1.1802837010   -0.0748082649    0.9958553284
H       -1.1344291101    0.9617098249   -0.4278479832
H       -1.1731376927   -0.7894583117   -0.6190352894
H        1.1721240594    0.7969953286    0.6202991937
H        1.1779135959    0.0816840484   -0.9938270637
H        1.1305314454   -0.9539099269    0.4305038361
8    
Iteration 31 Energy -79.82515545
C       -0.7645749846    0.0230430968   -0.0121232111
C        0.7622150824   -0.0153816990    0.0140157045
H       -1.1809978362   -0.0751261540    0.9939107493
H       -1.1323515001    0.9627725880   -0.4301975457
H       -1.1717112464   -0.7896128845   -0.6199193736
H        1.1702017411    0.7972670480    0.6213592518
H        1.1786279465    0.0820126620   -0.9920455896
H        1.1289504943   -0.9550497162    0.4327694490
8    
Iteration 32 Energy -79.82518257
C       -0.7636973011    0.0296815529   -0.0160551617
C        0.7611896868   -0.0224596453    0.0181995685
H       -1.1866075275   -0.0657489288    0.9872975105
H       -1.1189152916    0.9740325789   -0.4366053231
H       -1.1749245705   -0.7797743933   -0.6255604200
H        1.1724401305    0.7879755044    0.6263766264
H        1.1843306542    0.0713628554   -0.9851935690
H        1.1161702259   -0.9661345416    0.4403979746
8    
Iteration 33 Energy -79.82517636
C       -0.7629225866    0.0203942547   -0.0124938651
C        0.7604848543   -0.0127306945    0.0143402989
H       -1.1799177881   -0.0775547744    0.9932419508
H       -1.1294237841    0.9620605060   -0.4344927561
H       -1.1675358910   -0.7937402476   -0.6181685649
H        1.1645485082    0.8005746481    0.6214748809
H        1.1769340119    0.0868007814   -0.9915129738
H        1.1283185682   -0.9549852302    0.4345375703
8    
Iteration 34 Energy -79.82517610
C       -0.7635994428    0.0205167526   -0.0122749378
C        0.7611903958   -0.0128179866    0.0141279264
H       -1.1802899596   -0.0776112483    0.9936989058
H       -1.1315547948    0.9608046166   -0.4331836557
H       -1.1682145787   -0.7938086118   -0.6183905176
H        1.1656190567    0.8006198188    0.6215664206
H        1.1775027374    0.0868047356   -0.9918610832
H        1.1298240205   -0.9536939205    0.4333885347
8    
Iteration 35 Energy -79.82517722
C       -0.7641720598    0.0236756036   -0.0129989942
C        0.7617899965   -0.0161485977    0.0148448790
H       -1.1821152086   -0.0729638339    0.9924504818
H       -1.1293270299    0.9639254473   -0.4332186470
H       -1.1712607582   -0.7897922389   -0.6198676396
H        1.1689670099    0.7963160414    0.6230212021
H        1.1798438162    0.0820405548   -0.9904047310
H        1.1267054925   -0.9570596629    0.4335856224
8    
Iteration 36 Energy -79.82518499
C       -0.7640551210    0.0254649865   -0.0131001678
C        0.7616457138   -0.0181014172    0.0149933243
H       -1.1824000974   -0.0709720856    0.9922862088
H       -1.1269059248    0.9671483832   -0.4328012548
H       -1.1729700592   -0.7863614354   -0.6204969103
H        1.1707621965    0.7937317253    0.6222564196
H        1.1799464661    0.0781502242   -0.9904189948
H        1.1242739133   -0.9597638413    0.4348250678
8    
Iteration 37 Energy -79.82517957
C       -0.7636404005    0.0235276091   -0.0129110317
C        0.7612264004   -0.0163493365    0.0147206383
H       -1.1814816217   -0.0746833375    0.9925671914
H       -1.1281840499    0.9656649708   -0.4322194548
H       -1.1708434638   -0.7883598809   -0.6206927139
H        1.1684921536    0.7967708185    0.6208029224
H        1.1788075542    0.0798064589   -0.9910647490
H        1.1259802761   -0.9576555885    0.4359075060
8    
Iteration 38 Energy -79.82516799
C       -0.7636097692    0.0215455007   -0.0136665696
C        0.7612487271   -0.0142412422    0.0154208695
H       -1.1822086393   -0.0765870331    0.9914348675
H       -1.1298423928    0.9621797727   -0.4343498122
H       -1.1681735667   -0.7924282458   -0.6209643673
H        1.1655863015    0.7994686885    0.6232108487
H        1.1798508295    0.0845826304   -0.9896057165
H        1.1277930583   -0.9550556030    0.4355566275
8    
Iteration 39 Energy -79.82515985
C       -0.7638852227    0.0220025495   -0.0139101353
C        0.7615289222   -0.0147090841    0.0156561448
H       -1.1828493582   -0.0760192730    0.9910674043
H       -1.1301023085    0.9622564790   -0.4342573906
H       -1.1684837210   -0.7918393235   -0.6216529586
H        1.1660415800    0.7990773835    0.6235143607
H        1.1805680167    0.0835195197   -0.9892722279
H        1.1277640779   -0.9549995845    0.4358568136
8    
Iteration 40 Energy -79.82517993
C       -0.7638895771    0.0216065470   -0.0152300125
C        0.7615286118   -0.0143316568    0.0170130442
H       -1.1844840182   -0.0769640804    0.9890805648
H       -1.1299888775    0.9616756829   -0.4359885631
H       -1.1669393945   -0.7923113326   -0.6239025119
H        1.1644881165    0.7995321871    0.6257708634
H        1.1822004161    0.0844754006   -0.9872319401
H        1.1276410631   -0.9544256298    0.4376254280
8    
Iteration 41 Energy -79.82517061
C       -0.7638203926    0.0221265461   -0.0155185517
C        0.7614418069   -0.0147996617    0.0173577946
H       -1.1848260986   -0.0762020219    0.9886336572
H       -1.1289740624    0.9626206691   -0.4365138154
H       -1.1673229071   -0.7913941958   -0.6242518289
H        1.1648636021    0.7984604049    0.6264618122
H        1.1824823914    0.0840751324   -0.9867149396
H        1.1266525949   -0.9554661782    0.4379032516
8    
Iteration 42 Energy -79.82518081
C       -0.7637896020    0.0228696443   -0.0167164377
C        0.7613909886   -0.0154679152    0.0186737154
H       -1.1862001829   -0.0759193116    0.9867552583
H       -1.1275919578    0.9639786491   -0.4376910294
H       -1.1672799262   -0.7895423137   -0.6267863551
H        1.1649452380    0.7966607297    0.6290585408
H        1.1837111251    0.0837053205   -0.9848011701
H        1.1252019292   -0.9567754860    0.4392155709
8    
Iteration 43 Energy -79.82517488
C       -0.7637918820    0.0205711717   -0.0196984779
C        0.7613568543   -0.0133814426    0.0215936245
H       -1.1926640602   -0.0776675181    0.9817279675
H       -1.1262234986    0.9598416961   -0.4435269652
H       -1.1618079965   -0.7949124742   -0.6303267175
H        1.1586651500    0.8021483849    0.6326194120
H        1.1904858537    0.0854943467   -0.9795460551
H        1.1242809521   -0.9526391031    0.4449818319
8    
Iteration 44 Energy -79.82517975
C       -0.7637452703    0.0218111202   -0.0195816732
C        0.7613087910   -0.0145080568    0.0215620888
H       -1.1906736201   -0.0770452538    0.9821102339
H       -1.1266657595    0.9622860568   -0.4422200601
H       -1.1633826375   -0.7917932870   -0.6308237937
H        1.1606364339    0.7989744917    0.6331262970
H        1.1883624455    0.0848095412   -0.9800244958
H        1.1244292684   -0.9550626562    0.4438593361
8    
Iteration 45 Energy -79.82518498
C       -0.7636628259    0.0236323685   -0.0225873832
C        0.7612037826   -0.0161706540    0.0248425347
H       -1.1941550116   -0.0769804405    0.9772892064
H       -1.1231529042    0.9659895064   -0.4444963468
H       -1.1633388538   -0.7866486849   -0.6377286642
H        1.1611563451    0.7946917924    0.6390703542
H        1.1913648626    0.0830363409   -0.9753521073
H        1.1206510997   -0.9581806864    0.4476631397
8    
Iteration 46 Energy -79.82517691
C       -0.7633570782    0.0284197380   -0.0310312625
C        0.7608261337   -0.0205158966    0.0340407959
H       -1.2040028456   -0.0761168602    0.9636515855
H       -1.1136352438    0.9754701553   -0.4516373905
H       -1.1623199582   -0.7737732400   -0.6560377519
H        1.1615181493    0.7835203418    0.6557791157
H        1.2001151286    0.0788742114   -0.9618981720
H        1.1103841190   -0.9664642608    0.4580066077
8    
Iteration 47 Energy -79.82517614
C       -0.7635373125    0.0259668381   -0.0277234302
C        0.7610379982   -0.0183526015    0.0303437507
H       -1.2002385692   -0.0764332585    0.9688581624
H       -1.1182667444    0.9710538248   -0.4490232494
H       -1.1618470252   -0.7806947143   -0.6479125601
H        1.1604967027    0.7900239086    0.6477094738
H        1.1970818022    0.0800361010   -0.9670027010
H        1.1151175666   -0.9623263267    0.4547636346
8    
Iteration 48 Energy -79.82518319
C       -0.7636624427    0.0243090167   -0.0241792392
C        0.7611960696   -0.0169812703    0.0263957752
H       -1.1968675815   -0.0761444046    0.9742375887
H       -1.1214055747    0.9674814438   -0.4459512469
H       -1.1621841408   -0.7860377029   -0.6405001470
H        1.1603504252    0.7951771342    0.6399732371
H        1.1942385397    0.0800454905   -0.9724074400
H        1.1184512903   -0.9589454203    0.4511934174
8    
Iteration 49 Energy -79.82518018
C       -0.7633894591    0.0286097356   -0.0260788526
C        0.7609072149   -0.0209917284    0.0287211956
H       -1.2012545855   -0.0725071804    0.9710214047
H       -1.1129969416    0.9728075586   -0.4482220320
H       -1.1651200992   -0.7770751042   -0.6475401953
H        1.1633952331    0.7859269383    0.6480237704
H        1.1976804527    0.0767658022   -0.9690877456
H        1.1105875130   -0.9645980980    0.4523552524
8    
Iteration 50 Energy -79.82515812
C       -0.7633702907    0.0271181650   -0.0262206202
C        0.7609603944   -0.0197218456    0.0287885363
H       -1.1998349493   -0.0728753893    0.9715356153
H       -1.1157912129    0.9710056770   -0.4492389187
H       -1.1637102749   -0.7804811143   -0.6446932182
H        1.1612716935    0.7883922180    0.6465467063
H        1.1970058437    0.0790819658   -0.9692554777
H        1.1137509373   -0.9632693159    0.4524415579
8    
Iteration 51 Energy -79.82517589
C       -0.7635440298    0.0249249558   -0.0247431309
C        0.7611650374   -0.0176208045    0.0269697133
H       -1.1966386155   -0.0745076027    0.9735558759
H       -1.1210647151    0.9686012679   -0.4474361182
H       -1.1622349174   -0.7855600582   -0.6402125663
H        1.1601216115    0.7935914808    0.6413901086
H        1.1945041709    0.0805914829   -0.9713985340
H        1.1182417736   -0.9607918923    0.4510215202
8    
Iteration 52 Energy -79.82515823
C       -0.7634214512    0.0259684230   -0.0251066580
C        0.7610563296   -0.0185770783    0.0276348849
H       -1.1976826558   -0.0716815383    0.9735517839
H       -1.1183941965    0.9689075380   -0.4494980859
H       -1.1632675125   -0.7845162569   -0.6399085021
H        1.1604944973    0.7906731679    0.6443056796
H        1.1955078127    0.0814112305   -0.9707191086
H        1.1162921700   -0.9622758418    0.4501481525
8    
Iteration 53 Energy -79.82516434
C       -0.7634395995    0.0257559978   -0.0252527751
C        0.7611055966   -0.0184285896    0.0276364448
H       -1.1979558621   -0.0732814708    0.9729911293
H       -1.1187416070    0.9690938129   -0.4484254596
H       -1.1628284081   -0.7839411217   -0.6416089305
H        1.1606550246    0.7915298127    0.6435689961
H        1.1954871199    0.0800120792   -0.9707380769
H        1.1163271039   -0.9616254017    0.4512203838
8    
Iteration 54 Energy -79.82515834
C       -0.7634816074    0.0253397937   -0.0248969324
C        0.7611369960   -0.0180117426    0.0272620994
H       -1.1975584439   -0.0735821512    0.9734950675
H       -1.1195361188    0.9684485718   -0.4480688186
H       -1.1626209172   -0.7848614461   -0.6407872258
H        1.1604530132    0.7923367933    0.6428645600
H        1.1951061626    0.0805164632   -0.9712251028
H        1.1170856888   -0.9610423248    0.4507023963
8    
Iteration 55 Energy -79.82518414
C       -0.7635300824    0.0229855818   -0.0237318980
C        0.7611743672   -0.0157396892    0.0261707373
H       -1.1959632602   -0.0746387984    0.9757948528
H       -1.1228420967    0.9643282226   -0.4482488203
H       -1.1610806208   -0.7900862996   -0.6363268602
H        1.1582096693    0.7963246001    0.6403538191
H        1.1937635087    0.0839793343   -0.9731088939
H        1.1209109183   -0.9576437243    0.4491519364
8    
Iteration 56 Energy -79.82518142
C       -0.7634857209    0.0249003912   -0.0248014499
C        0.7611289142   -0.0176095423    0.0271254530
H       -1.1974085475   -0.0741756148    0.9736958010
H       -1.1200145690    0.9677591941   -0.4480277395
H       -1.1622998032   -0.7855737905   -0.6405621200
H        1.1600468401    0.7929854355    0.6426627517
H        1.1949568651    0.0811318740   -0.9714520163
H        1.1176358500   -0.9603896752    0.4505623478
8    
Iteration 57 Energy -79.82517992
C       -0.7635582869    0.0237238860   -0.0243856949
C        0.7611899295   -0.0164790752    0.0266390799
H       -1.1968259146   -0.0755549670    0.9743231361
H       -1.1217575808    0.9658971700   -0.4477207906
H       -1.1614873586   -0.7876887609   -0.6395397323
H        1.1592274152    0.7950735443    0.6415320583
H        1.1944093559    0.0823974686   -0.9721401304
H        1.1193307125   -0.9585758955    0.4502037704
8    
Iteration 58 Energy -79.82518647
C       -0.7635596949    0.0235398176   -0.0239461629
C        0.7611934557   -0.0163315316    0.0262389560
H       -1.1963045537   -0.0748653128    0.9751985700
H       -1.1221755162    0.9652084411   -0.4479257039
H       -1.1614915058   -0.7887076341   -0.6379578230
H        1.1589262942    0.7956366328    0.6407268626
H        1.1940944690    0.0827297173   -0.9727727571
H        1.1198891028   -0.9581729840    0.4497562006
8    
Iteration 59 Energy -79.82518642
C       -0.7635531085    0.0237587916   -0.0242082025
C        0.7611939300   -0.0165438558    0.0264806075
H       -1.1966483689   -0.0750576027    0.9747063169
H       -1.1217464155    0.9657301965   -0.4479044565
H       -1.1616027260   -0.7879653463   -0.6388293812
H        1.1591720968    0.7951301476    0.6412021634
H        1.1943485924    0.0824186305   -0.9723935149
H        1.1194165629   -0.9585433040    0.4500871538
