5    
Iteration 0 Energy -40.51420766
C       -0.0220000000    0.0030000000    0.0170000000
H       -0.6690000000    0.8890000000   -0.1010000000
H       -0.3780000000   -0.8580000000   -0.5880000000
H        0.0960000000   -0.3150000000    1.0640000000
H        0.9720000000    0.2800000000   -0.3910000000
5    
Iteration 1 Energy -40.51551026
C       -0.0069828199    0.0025712277    0.0053094900
H       -0.6740753000    0.8576240440   -0.0899766052
H       -0.3902215003   -0.8357362229   -0.5777991403
H        0.0862466425   -0.2954299111    1.0484658318
H        0.9782810577    0.2765344712   -0.3821598454
5    
Iteration 2 Energy -40.51556939
C       -0.0017164216    0.0032618025    0.0009573283
H       -0.6756170415    0.8555594045   -0.0859990871
H       -0.3946638286   -0.8317881767   -0.5797444723
H        0.0841737628   -0.2898774479    1.0475209071
H        0.9822935306    0.2779206045   -0.3805631149
5    
Iteration 3 Energy -40.51556433
C       -0.0010098874    0.0015820780    0.0000243768
H       -0.6768377098    0.8533501203   -0.0855573610
H       -0.3938830824   -0.8336124345   -0.5809021800
H        0.0835524145   -0.2917004189    1.0470793006
H        0.9829788166    0.2781813611   -0.3804716489
5    
Iteration 4 Energy -40.51556433
C       -0.0010098874    0.0015820780    0.0000243768
H       -0.6768377098    0.8533501203   -0.0855573610
H       -0.3938830824   -0.8336124345   -0.5809021800
H        0.0835524145   -0.2917004189    1.0470793006
H        0.9829788166    0.2781813611   -0.3804716489
5    
Iteration 5 Energy -40.51556432
C       -0.0008301902    0.0016435787   -0.0004311102
H       -0.6759833209    0.8539822024   -0.0858192845
H       -0.3945625411   -0.8336683699   -0.5807811640
H        0.0839297904   -0.2913759260    1.0467616427
H        0.9830435969    0.2776571586   -0.3816938448
