8    
Iteration 59 Energy -79.82518642
C       -0.7635531085    0.0237587916   -0.0242082025
C        0.7611939300   -0.0165438558    0.0264806075
H       -1.1966483689   -0.0750576027    0.9747063169
H       -1.1217464155    0.9657301965   -0.4479044565
H       -1.1616027260   -0.7879653463   -0.6388293812
H        1.1591720968    0.7951301476    0.6412021634
H        1.1943485924    0.0824186305   -0.9723935149
H        1.1194165629   -0.9585433040    0.4500871538
